*HEADING
cubit(T/STEPS4ModelRelease/caBurst/mesh/cone_1_0.2_3701tets.inp): 10/10/2024: 13
version: 2022.4
**
********************************** P A R T S **********************************
*PART, NAME=Part-Default
**
********************************** N O D E S **********************************
*NODE, NSET=ALLNODES
       1,    2.000000e-01,    0.000000e+00,    5.000000e+00
       2,   -1.999842e-01,    2.513296e-03,    5.000000e+00
       3,    1.000000e+00,    0.000000e+00,   -5.000000e+00
       4,   -9.999210e-01,    1.256604e-02,   -5.000000e+00
       5,    1.734141e-01,    9.963701e-02,    5.000000e+00
       6,    1.007247e-01,    1.727847e-01,    5.000000e+00
       7,    1.256672e-03,    1.999961e-01,    5.000000e+00
       8,   -9.854542e-02,    1.740368e-01,    5.000000e+00
       9,   -1.721484e-01,    1.018083e-01,    5.000000e+00
      10,   -1.742428e-01,   -9.818067e-02,    5.000000e+00
      11,   -1.014476e-01,   -1.723612e-01,    5.000000e+00
      12,   -1.256739e-03,   -1.999961e-01,    5.000000e+00
      13,    9.927350e-02,   -1.736225e-01,    5.000000e+00
      14,    1.729952e-01,   -1.003626e-01,    5.000000e+00
      15,    8.649763e-01,   -5.018127e-01,   -5.000000e+00
      16,    4.963680e-01,   -8.681122e-01,   -5.000000e+00
      17,   -6.283107e-03,   -9.999803e-01,   -5.000000e+00
      18,   -5.072375e-01,   -8.618063e-01,   -5.000000e+00
      19,   -8.712138e-01,   -4.909038e-01,   -5.000000e+00
      20,   -8.607420e-01,    5.090414e-01,   -5.000000e+00
** ... 925 like lines cut
**
********************************** E L E M E N T S ****************************
*ELEMENT, TYPE=C3D4, ELSET=EB1
       1,     572,     573,     574,     575
       2,     572,     575,     576,     577
       3,     256,     578,     393,     579
       4,     576,     581,     580,     582
       5,     575,     576,     583,     584
       6,     574,     575,     580,     582
       7,     575,     576,     582,     585
       8,     574,     585,     582,     586
       9,     587,     588,     589,     590
      10,     580,     591,     582,     592
      11,     491,     586,     493,     591
      12,     439,     586,     491,     592
      13,     574,     586,     582,     591
      14,     281,     370,     369,     593
      15,     493,     586,     574,     591
      16,     594,     595,     596,     597
      17,     597,     599,     598,     600
      18,     597,     599,     600,     601
      19,     597,     602,     600,     603
      20,     597,     601,     600,     604
** ... 3681 like lines cut
**
********************************** P R O P E R T I E S ************************
*SOLID SECTION, ELSET=EB1, MATERIAL=Default-Steel
**
*END PART
**
**
**
********************************** E N D   P A R T S **********************************
**
**
********************************** A S S E M B L Y ************************************
**
*ASSEMBLY, NAME=ASSEMBLY1
**
*INSTANCE, NAME=Part-Default_1, PART=Part-Default
*END INSTANCE
**
*END ASSEMBLY
**
**
**
*MATERIAL, NAME = Default-Steel
*ELASTIC, TYPE=ISOTROPIC
2.068000e+05, 2.900000e-01
*DENSITY
7.000000e-06
*CONDUCTIVITY,TYPE=ISO
4.500000e-02
*SPECIFIC HEAT
5.000000e+02
**
**
************************************** H I S T O R Y *************************************
**
*PREPRINT
**
**************************************** S T E P 1 ***************************************
*STEP,INC=100,NAME=Default Set
**
*STATIC
1, 1, 1e-05, 1
**
**
**
**
*END STEP
