*HEADING
cubit(STEPS4ModelRelease/caBurst/mesh/pyramid_1_0.2_112tets.inp): 10/10/2024: 14
version: 2022.4
**
********************************** P A R T S **********************************
*PART, NAME=Part-Default
**
********************************** N O D E S **********************************
*NODE, NSET=ALLNODES
       1,    1.414214e-01,   -1.414214e-01,    5.000000e+00
       2,    1.414214e-01,    1.414214e-01,    5.000000e+00
       3,   -1.414214e-01,    1.414214e-01,    5.000000e+00
       4,   -1.414214e-01,   -1.414214e-01,    5.000000e+00
       5,    7.071068e-01,    7.071068e-01,   -5.000000e+00
       6,    7.071068e-01,   -7.071068e-01,   -5.000000e+00
       7,   -7.071068e-01,   -7.071068e-01,   -5.000000e+00
       8,   -7.071068e-01,    7.071068e-01,   -5.000000e+00
       9,   -1.033233e-01,    2.220446e-16,   -5.000000e+00
      10,   -1.596736e-01,   -1.596736e-01,    4.677342e+00
      11,   -1.833127e-01,   -1.833127e-01,    4.259458e+00
      12,   -2.138984e-01,   -2.138984e-01,    3.718775e+00
      13,   -2.536389e-01,   -2.536389e-01,    3.016256e+00
      14,   -3.052640e-01,   -3.052640e-01,    2.103645e+00
      15,   -3.683568e-01,   -3.683568e-01,    9.883107e-01
      16,   -4.360942e-01,   -4.360942e-01,   -2.091293e-01
      17,   -5.038474e-01,   -5.038474e-01,   -1.406847e+00
      18,   -5.716005e-01,   -5.716005e-01,   -2.604565e+00
      19,   -6.393536e-01,   -6.393536e-01,   -3.802282e+00
      20,    1.596736e-01,   -1.596736e-01,    4.677342e+00
** ... 36 like lines cut
**
********************************** E L E M E N T S ****************************
*ELEMENT, TYPE=C3D4, ELSET=EB1
       1,       1,      20,       4,      50
       2,      11,      41,      31,      50
       3,       7,       8,      39,      51
       4,      18,      38,      37,      52
       5,      27,      47,      48,      52
       6,      18,      38,      52,      53
       7,      28,      27,      48,      52
       8,       5,      39,       8,      51
       9,       6,       7,      29,      51
      10,       5,       9,       6,      51
      11,       3,       2,       1,      50
      12,       3,       1,       4,      50
      13,      27,      37,      47,      52
      14,       2,      30,      40,      50
      15,      15,      45,      25,      54
      16,      15,      35,      45,      54
      17,      15,      25,      26,      54
      18,      23,      22,      43,      55
      19,      13,      32,      12,      55
      20,      13,      33,      32,      55
** ... 92 like lines cut
**
********************************** P R O P E R T I E S ************************
*SOLID SECTION, ELSET=EB1, MATERIAL=Default-Steel
**
*END PART
**
**
**
********************************** E N D   P A R T S **********************************
**
**
********************************** A S S E M B L Y ************************************
**
*ASSEMBLY, NAME=ASSEMBLY1
**
*INSTANCE, NAME=Part-Default_1, PART=Part-Default
*END INSTANCE
**
*END ASSEMBLY
**
**
**
*MATERIAL, NAME = Default-Steel
*ELASTIC, TYPE=ISOTROPIC
2.068000e+05, 2.900000e-01
*DENSITY
7.000000e-06
*CONDUCTIVITY,TYPE=ISO
4.500000e-02
*SPECIFIC HEAT
5.000000e+02
**
**
************************************** H I S T O R Y *************************************
**
*PREPRINT
**
**************************************** S T E P 1 ***************************************
*STEP,INC=100,NAME=Default Set
**
*STATIC
1, 1, 1e-05, 1
**
**
**
**
*END STEP
